
     RDKit          3D

  7  6  0  0  0  0  0  0  0  0999 V2000
   -0.3801    0.1751    0.1067 C   0  0  0  0  0  0  0  0  0  0  0  0
    1.0003    0.0560    0.7077 C   0  0  0  0  0  0  0  0  0  0  0  0
    1.9454   -0.7140   -0.1521 C   0  0  0  0  0  0  0  0  0  0  0  0
    2.1183   -0.1329   -1.3983 F   0  0  0  0  0  0  0  0  0  0  0  0
   -1.2942    0.9596    1.0120 C   0  0  0  0  0  0  0  0  0  0  0  0
   -0.9105   -1.2468   -0.0896 C   0  0  0  0  0  0  0  0  0  0  0  0
   -0.3779    0.8279   -1.2369 C   0  0  0  0  0  0  0  0  0  0  0  0
  1  2  1  0
  2  3  1  0
  3  4  1  0
  1  5  1  0
  1  6  1  0
  1  7  1  0
M  END
