
     RDKit          3D

  7  6  0  0  0  0  0  0  0  0999 V2000
   -0.3717    0.0001    0.1315 C   0  0  0  0  0  0  0  0  0  0  0  0
    1.0538   -0.3634    0.3885 C   0  0  0  0  0  0  0  0  0  0  0  0
    2.0162    0.0896   -0.6559 C   0  0  0  0  0  0  0  0  0  0  0  0
    3.2835   -0.3338   -0.2526 F   0  0  0  0  0  0  0  0  0  0  0  0
   -1.1871   -0.5517    1.3102 C   0  0  0  0  0  0  0  0  0  0  0  0
   -0.6388    1.4586    0.0460 C   0  0  0  0  0  0  0  0  0  0  0  0
   -0.9339   -0.6677   -1.1047 C   0  0  0  0  0  0  0  0  0  0  0  0
  1  2  1  0
  2  3  1  0
  3  4  1  0
  1  5  1  0
  1  6  1  0
  1  7  1  0
M  END
