
     RDKit          3D

  7  6  0  0  0  0  0  0  0  0999 V2000
   -0.3915    0.2044    0.0950 C   0  0  0  0  0  0  0  0  0  0  0  0
    1.0440    0.4565   -0.2254 C   0  0  0  0  0  0  0  0  0  0  0  0
    1.8019   -0.7686   -0.6548 C   0  0  0  0  0  0  0  0  0  0  0  0
    3.1148   -0.3465   -0.9114 F   0  0  0  0  0  0  0  0  0  0  0  0
   -1.1756   -0.3460   -1.0614 C   0  0  0  0  0  0  0  0  0  0  0  0
   -0.4464   -0.8158    1.2179 C   0  0  0  0  0  0  0  0  0  0  0  0
   -0.9769    1.5034    0.6235 C   0  0  0  0  0  0  0  0  0  0  0  0
  1  2  1  0
  2  3  1  0
  3  4  1  0
  1  5  1  0
  1  6  1  0
  1  7  1  0
M  END
