
     RDKit          3D

  7  6  0  0  0  0  0  0  0  0999 V2000
   -0.4011    0.0763    0.1057 C   0  0  0  0  0  0  0  0  0  0  0  0
    0.9421   -0.2184    0.6868 C   0  0  0  0  0  0  0  0  0  0  0  0
    2.0752   -0.1072   -0.3005 C   0  0  0  0  0  0  0  0  0  0  0  0
    1.9461   -0.9664   -1.3603 F   0  0  0  0  0  0  0  0  0  0  0  0
   -1.4277   -0.0750    1.2086 C   0  0  0  0  0  0  0  0  0  0  0  0
   -0.6876   -1.0036   -0.9396 C   0  0  0  0  0  0  0  0  0  0  0  0
   -0.5379    1.3870   -0.5644 C   0  0  0  0  0  0  0  0  0  0  0  0
  1  2  1  0
  2  3  1  0
  3  4  1  0
  1  5  1  0
  1  6  1  0
  1  7  1  0
M  END
