
     RDKit          3D

  7  6  0  0  0  0  0  0  0  0999 V2000
   -0.3671    0.0017    0.0919 C   0  0  0  0  0  0  0  0  0  0  0  0
    1.0265    0.3208    0.5264 C   0  0  0  0  0  0  0  0  0  0  0  0
    2.0766    0.0739   -0.5143 C   0  0  0  0  0  0  0  0  0  0  0  0
    2.1098   -1.2549   -0.9136 F   0  0  0  0  0  0  0  0  0  0  0  0
   -0.5649   -1.4297   -0.3026 C   0  0  0  0  0  0  0  0  0  0  0  0
   -1.2668    0.2597    1.3061 C   0  0  0  0  0  0  0  0  0  0  0  0
   -0.8639    0.9202   -1.0022 C   0  0  0  0  0  0  0  0  0  0  0  0
  1  2  1  0
  2  3  1  0
  3  4  1  0
  1  5  1  0
  1  6  1  0
  1  7  1  0
M  END
