
     RDKit          3D

  7  6  0  0  0  0  0  0  0  0999 V2000
   -0.3555   -0.1310    0.0050 C   0  0  0  0  0  0  0  0  0  0  0  0
    0.9470   -0.0875   -0.7166 C   0  0  0  0  0  0  0  0  0  0  0  0
    2.0487    0.5977    0.0308 C   0  0  0  0  0  0  0  0  0  0  0  0
    1.7826    1.9093    0.3324 F   0  0  0  0  0  0  0  0  0  0  0  0
   -1.3385   -0.8664   -0.9213 C   0  0  0  0  0  0  0  0  0  0  0  0
   -0.3144   -0.8674    1.3067 C   0  0  0  0  0  0  0  0  0  0  0  0
   -0.9602    1.2414    0.2194 C   0  0  0  0  0  0  0  0  0  0  0  0
  1  2  1  0
  2  3  1  0
  3  4  1  0
  1  5  1  0
  1  6  1  0
  1  7  1  0
M  END
